
#######################################################################
#
#                 Cambridge Crystallographic Data Centre
#                                CCDC 
#
#######################################################################
#
# If this CIF has been generated from an entry in the Cambridge 
# Structural Database, then it will include bibliographic, chemical, 
# crystal, experimental, refinement or atomic coordinate data resulting 
# from the CCDC's data processing and validation procedures.
#
#######################################################################

data_DBFx_OMe_a
_symmetry_cell_setting           monoclinic
_symmetry_space_group_name_H-M   'P 21/c'
_symmetry_Int_Tables_number      14
_space_group_name_Hall           '-P 2ybc'
loop_
_symmetry_equiv_pos_site_id
_symmetry_equiv_pos_as_xyz
1 x,y,z
2 -x,1/2+y,1/2-z
3 -x,-y,-z
4 x,1/2-y,1/2+z
_cell_length_a                   13.716(3)
_cell_length_b                   17.774(3)
_cell_length_c                   22.446(4)
_cell_angle_alpha                90
_cell_angle_beta                 91.794(6)
_cell_angle_gamma                90
_cell_volume                     5469.39
loop_
_atom_site_label
_atom_site_type_symbol
_atom_site_fract_x
_atom_site_fract_y
_atom_site_fract_z
O6 O 0.08631(11) 0.68888(9) 0.57601(6)
O7 O 0.13186(12) 0.85632(9) 0.78024(6)
O8 O 0.13077(11) 1.16363(9) 0.80393(6)
O9 O 0.36391(13) 1.02096(10) 0.53962(7)
O10 O -0.27078(13) 0.93822(10) 0.69322(8)
C40 C 0.09106(17) 0.61758(13) 0.60115(11)
C41 C 0.07970(17) 0.55141(14) 0.56971(11)
H41 H 0.06719(17) 0.55112(14) 0.52830(11)
C42 C 0.08765(19) 0.48553(15) 0.60216(12)
H42 H 0.07985(19) 0.43922(15) 0.58234(12)
C43 C 0.10683(18) 0.48588(15) 0.66317(12)
H43 H 0.11322(18) 0.44002(15) 0.68378(12)
C44 C 0.11669(17) 0.55308(13) 0.69413(11)
H44 H 0.12864(17) 0.55330(13) 0.73560(11)
C45 C 0.10849(16) 0.62039(13) 0.66237(10)
C46 C 0.11312(15) 0.69965(13) 0.67740(10)
C47 C 0.12548(16) 0.74110(13) 0.72968(10)
H47 H 0.13669(16) 0.71702(13) 0.76654(10)
C48 C 0.12081(16) 0.81910(13) 0.72590(9)
C49 C 0.10453(16) 0.85714(13) 0.67216(9)
C50 C 0.09469(17) 0.81507(13) 0.61952(10)
H50 H 0.08555(17) 0.83894(13) 0.58239(10)
C51 C 0.09875(16) 0.73833(13) 0.62360(10)
C52 C 0.08828(17) 0.94181(13) 0.67014(9)
C53 C 0.11565(16) 0.97771(13) 0.73029(9)
C54 C 0.13283(16) 0.93453(13) 0.78136(10)
C55 C 0.14943(16) 0.96630(13) 0.83729(9)
H55 H 0.16141(16) 0.93573(13) 0.87090(9)
C56 C 0.14798(16) 1.04380(13) 0.84254(10)
C57 C 0.13199(16) 1.08680(13) 0.79105(10)
C58 C 0.11638(16) 1.05616(13) 0.73569(10)
H58 H 0.10637(16) 1.08705(13) 0.70206(10)
C59 C 0.14501(16) 1.16848(14) 0.86515(10)
C60 C 0.15649(16) 1.09763(13) 0.89124(10)
C61 C 0.17071(17) 1.09280(14) 0.95264(10)
H61 H 0.17841(17) 1.04587(14) 0.97150(10)
C62 C 0.17325(17) 1.15874(14) 0.98536(10)
H62 H 0.18327(17) 1.15642(14) 1.02694(10)
C63 C 0.16124(18) 1.22861(15) 0.95783(11)
H63 H 0.16296(18) 1.27240(15) 0.98132(11)
C64 C 0.14686(17) 1.23495(14) 0.89684(11)
H64 H 0.13879(17) 1.28189(14) 0.87802(11)
C65 C 0.13997(18) 0.98183(13) 0.61941(10)
C66 C 0.23799(18) 0.97979(13) 0.60723(10)
H66 H 0.28221(18) 0.95191(13) 0.63125(10)
C67 C 0.26937(19) 1.02031(13) 0.55827(10)
C68 C 0.43782(19) 0.99282(17) 0.57964(12)
H68a H 0.4262(7) 0.9399(3) 0.5872(6)
H68b H 0.5011(2) 0.9989(9) 0.5621(4)
H68c H 0.4365(9) 1.0205(7) 0.6169(3)
C69 C 0.2034(2) 1.06257(14) 0.52344(10)
H69 H 0.2258(2) 1.08968(14) 0.49060(10)
C70 C 0.1058(2) 1.06504(14) 0.53662(10)
H70 H 0.0621(2) 1.09413(14) 0.51323(10)
C71 C 0.07292(18) 1.02418(13) 0.58475(10)
C72 C -0.02517(19) 1.01297(13) 0.60753(10)
C73 C -0.1153(2) 1.04211(14) 0.58991(11)
H73 H -0.1200(2) 1.07750(14) 0.55883(11)
C74 C -0.1986(2) 1.01894(14) 0.61820(12)
H74 H -0.2595(2) 1.03958(14) 0.60686(12)
C75 C -0.19244(19) 0.96558(14) 0.66305(11)
C76 C -0.36505(19) 0.96481(16) 0.67503(12)
H76a H -0.3793(6) 0.9497(9) 0.6342(3)
H76b H -0.4135(2) 0.9436(8) 0.7007(5)
H76c H -0.3665(4) 1.01925(17) 0.6778(8)
C77 C -0.10173(18) 0.93602(13) 0.68186(10)
H77 H -0.09739(18) 0.89986(13) 0.71239(10)
C78 C -0.01913(18) 0.96113(13) 0.65462(10)

#END
